Version 4
SHEET 1 1008 680
WIRE 304 112 80 112
WIRE 432 112 384 112
WIRE 480 112 432 112
WIRE 640 112 560 112
WIRE 640 144 640 112
WIRE 80 160 80 112
WIRE 432 160 432 112
WIRE 80 272 80 240
WIRE 432 272 432 224
WIRE 432 272 80 272
WIRE 640 272 640 224
WIRE 640 272 432 272
WIRE 432 288 432 272
FLAG 432 288 0
SYMBOL voltage 80 144 R0
WINDOW 3 -122 40 Left 2
WINDOW 123 -120 67 Left 2
WINDOW 39 -120 95 Left 2
SYMATTR InstName Vg
SYMATTR Value SINE()
SYMATTR Value2 AC 1
SYMATTR SpiceLine Rser=50
SYMBOL ind 288 128 R270
WINDOW 0 32 56 VTop 2
WINDOW 3 5 56 VBottom 2
SYMATTR InstName L1
SYMATTR Value {L1}
SYMBOL ind 464 128 R270
WINDOW 0 32 56 VTop 2
WINDOW 3 5 56 VBottom 2
SYMATTR InstName L2
SYMATTR Value {L2}
SYMBOL cap 416 160 R0
SYMATTR InstName C1
SYMATTR Value {C1}
SYMBOL res 624 128 R0
SYMATTR InstName RL
SYMATTR Value {Ro}
TEXT -32 344 Left 2 !.param C1=0.553/(wo*Ro) L1=1.225*Ro/wo L2=0.192*Ro/wo
TEXT -28 388 Left 2 !.ac dec 1000 0.1Meg 1000Meg
TEXT -24 432 Left 2 !.net I(RL) Vg
TEXT -24 464 Left 2 !.param fo=10Meg wo=2*pi*fo Ro=50
